Version 4
SHEET 1 880 680
WIRE 256 112 256 96
WIRE 144 128 48 128
WIRE 224 128 144 128
WIRE 144 144 144 128
WIRE 352 144 288 144
WIRE 384 144 352 144
WIRE 480 144 464 144
WIRE 224 160 208 160
WIRE 480 160 480 144
WIRE 48 192 48 128
WIRE 256 192 256 176
WIRE -112 208 -112 176
WIRE 208 240 208 160
WIRE 256 240 208 240
WIRE 352 240 352 144
WIRE 352 240 336 240
WIRE 208 256 208 240
WIRE -112 304 -112 288
WIRE -112 304 -192 304
WIRE 48 304 48 272
WIRE 144 304 144 224
WIRE 480 304 480 240
WIRE -192 320 -192 304
WIRE -112 320 -112 304
WIRE 208 352 208 336
WIRE -112 432 -112 400
FLAG 48 304 0
FLAG 144 304 0
FLAG -192 320 0
FLAG -112 176 +V
FLAG -112 432 -V
FLAG 208 352 0
FLAG 480 304 0
FLAG 256 96 -V
FLAG 256 192 +V
SYMBOL Misc\\signal 48 176 M0
WINDOW 123 24 160 Left 2
WINDOW 39 24 188 Left 2
SYMATTR InstName V1
SYMATTR Value ""
SYMATTR Value2 AC 1
SYMATTR SpiceLine Rser=75
SYMBOL res 160 240 R180
WINDOW 0 36 76 Left 2
WINDOW 3 36 40 Left 2
SYMATTR InstName R1
SYMATTR Value 75
SYMBOL voltage -112 192 R0
SYMATTR InstName +V
SYMATTR Value 16
SYMBOL voltage -112 416 M180
WINDOW 0 24 96 Left 2
WINDOW 3 24 16 Left 2
SYMATTR InstName -V
SYMATTR Value -5
SYMBOL res 192 240 R0
SYMATTR InstName R2
SYMATTR Value 140
SYMBOL res 352 224 R90
WINDOW 0 0 56 VBottom 2
WINDOW 3 32 56 VTop 2
SYMATTR InstName R3
SYMATTR Value 2.1K
SYMBOL res 480 128 R90
WINDOW 0 0 56 VBottom 2
WINDOW 3 32 56 VTop 2
SYMATTR InstName R4
SYMATTR Value 300
SYMBOL res 464 144 R0
SYMATTR InstName R5
SYMATTR Value 100
SYMBOL Opamps\\LT1227 256 208 M180
SYMATTR InstName U1
TEXT -50 470 Left 2 !;tran 0 1uS 0
TEXT -48 504 Left 2 !.ac dec 100 1 10mega
TEXT 472 112 Left 2 ;-12dBV
TEXT 216 48 Left 2 ;+2.5dB - +24dBV
TEXT 112 96 Left 2 ;-6dBV
